/*--------------------------------*- C++ -*----------------------------------*\
  =========                 |
  \\      /  F ield         | OpenFOAM: The Open Source CFD Toolbox
   \\    /   O peration     | Website:  https://openfoam.org
    \\  /    A nd           | Version:  8
     \\/     M anipulation  |
\*---------------------------------------------------------------------------*/
FoamFile
{
    version     2.0;
    format      ascii;
    class       volScalarField;
    location    "0";
    object      nut;
}
// * * * * * * * * * * * * * * * * * * * * * * * * * * * * * * * * * * * * * //

dimensions      [0 2 -1 0 0 0 0];

internalField   uniform 0;

boundaryField
{


    frontAndBack
    {
        type            empty;
    }

    INLET
    {
        type            calculated;
        value           uniform 0;
    }

    OUTLET
    {
        type            calculated;
        value           uniform 0;
    }

    CYLINDER
    {
        type            nutkWallFunction;
        value           uniform 0;
    }

    SYM
    {
        type            symmetry;
    }

}


// ************************************************************************* //
