/*--------------------------------*- C++ -*----------------------------------*\
  =========                 |
  \\      /  F ield         | OpenFOAM: The Open Source CFD Toolbox
   \\    /   O peration     | Website:  https://openfoam.org
    \\  /    A nd           | Version:  8
     \\/     M anipulation  |
\*---------------------------------------------------------------------------*/
FoamFile
{
    version     2.0;
    format      binary;
    class       polyBoundaryMesh;
    location    "constant/polyMesh";
    object      boundary;
}
// * * * * * * * * * * * * * * * * * * * * * * * * * * * * * * * * * * * * * //

7
(
    INLET
    {
        type            patch;
        nFaces          3783;
        startFace       2196324;
    }
    OUTLET
    {
        type            patch;
        nFaces          3783;
        startFace       2200107;
    }
    UPSYM
    {
        type            cyclic;
        neighbourPatch  DOWNSYM;
        nFaces          19032;
        startFace       2203890;
    }
    UPSLIPWALL
    {
        type            symmetry;
        inGroups        List<word> 1(symmetry);
        nFaces          4563;
        startFace       2222922;
    }
    CYLINDER
    {
        type            wall;
        inGroups        List<word> 1(wall);
        nFaces          6084;
        startFace       2227485;
    }
    DOWNSYM
    {
        type            cyclic;
        neighbourPatch  UPSYM;
        nFaces          19032;
        startFace       2233569;
    }
    DOWNSLIPWALL
    {
        type            symmetry;
        inGroups        List<word> 1(symmetry);
        nFaces          4563;
        startFace       2252601;
    }
)

// ************************************************************************* //
