/*--------------------------------*- C++ -*----------------------------------*\
  =========                 |
  \\      /  F ield         | OpenFOAM: The Open Source CFD Toolbox
   \\    /   O peration     | Website:  https://openfoam.org
    \\  /    A nd           | Version:  8
     \\/     M anipulation  |
\*---------------------------------------------------------------------------*/
FoamFile
{
    version     2.0;
    format      ascii;
    class       dictionary;
    location    "system";
    object      controlDict;
}
// * * * * * * * * * * * * * * * * * * * * * * * * * * * * * * * * * * * * * //

application     pimpleFoam;

startFrom       latestTime;

//startTime       0;

stopAt          endTime;

endTime         400;

deltaT          0.0005;

writeControl    timeStep;

writeInterval   500;

purgeWrite      0;

writeFormat     binary;

writePrecision  6;

writeCompression off;

timeFormat      general;

timePrecision   6;

runTimeModifiable true;

adjustTimeStep  no;

maxCo           0.05;


// ************************************************************************* //

functions

{

  

     Forces

     {

         type forces; 

         functionObjectLibs ("libforces.so"); 

         patches (CYLINDER); 

         log true; 

         rho rhoInf; 

         rhoInf 998; 

         CofR (0 0 0);

         liftDir (0 1 0); 

         dragDir (1 0 0); 

         writeControl    timeStep; 

         writeInterval   5;

     }

 



     forceCoeffs

     {

         type forceCoeffs; 

         functionObjectLibs ("libforces.so"); 

         patches (CYLINDER); 

         log true; 

         rho rhoInf; 

         rhoInf 998; 

         CofR (0 0 0);

         liftDir (0 1 0); 

         dragDir (1 0 0); 

         pitchAxis (0 0 1);

         magUInf 1;

         lRef 1; 

         Aref 1; 

         writeControl    timeStep; 


         writeInterval   1; 

     }
     
       sixDoFRigidBodyState
    {
        type           sixDoFRigidBodyState;
        libs           ("libsixDoFRigidBodyState.so");
        angleFormat    degrees;
    }  
 
       yplus
    {
        type yPlus;
        functionObjectLibs ("libfieldFunctionObjects.so");
        enabled true;

        writeControl outputTime;

        executeControl outputTime;
       // executeInterval 10;

        log true;
    }
    
    
    
};
