/*--------------------------------*- C++ -*----------------------------------*\
  =========                 |
  \\      /  F ield         | OpenFOAM: The Open Source CFD Toolbox
   \\    /   O peration     | Website:  https://openfoam.org
    \\  /    A nd           | Version:  8
     \\/     M anipulation  |
\*---------------------------------------------------------------------------*/
FoamFile
{
    version     2.0;
    format      ascii;
    class       volScalarField;
    object      k;
}
// * * * * * * * * * * * * * * * * * * * * * * * * * * * * * * * * * * * * * //


dimensions      [0 2 -2 0 0 0 0];

internalField   uniform 0.0001;

boundaryField
{
    OUTLET
    {
        type            inletOutlet;
        inletValue      $internalField;
        value           $internalField;
    }

    INLET
    {
        type            inletOutlet;
        inletValue      $internalField;
        value           $internalField;
    }

    CYLINDER
    {
        type            kqRWallFunction;
        value           $internalField;
    }

    UPSLIPWALL
    {
        type            symmetry;
    }

    DOWNSLIPWALL
    {
        type            symmetry;
    }

    UPSYM
    {
        type            cyclic;
    }

    DOWNSYM
    {
        type            cyclic;
    }


}


// ************************************************************************* //
