/*--------------------------------*- C++ -*----------------------------------*\
  =========                 |
  \\      /  F ield         | OpenFOAM: The Open Source CFD Toolbox
   \\    /   O peration     | Website:  https://openfoam.org
    \\  /    A nd           | Version:  8
     \\/     M anipulation  |
\*---------------------------------------------------------------------------*/
FoamFile
{
    version     2.0;
    format      ascii;
    class       volVectorField;
    object      U;
}
// * * * * * * * * * * * * * * * * * * * * * * * * * * * * * * * * * * * * * //

dimensions      [0 1 -1 0 0 0 0];

internalField   uniform (0.167 0 0);

boundaryField
{
    INLET
    {
        type              freestream;
        freestreamValue   uniform      (0.167 0 0);
    }

    OUTLET
    {
        type            zeroGradient;
    }
    
    UPSLIPWALL
    {
        type            symmetry;
    }

    DOWNSLIPWALL
    {
        type            symmetry;
    }

    UPSYM
    {
        type            cyclic;
    }

    DOWNSYM
    {
        type            cyclic;
    }

    CYLINDER
    {
        type            movingWallVelocity;
        value           uniform        (0 0 0);
    }
    
}

// ************************************************************************* //
